<?xml version="1.0" encoding="UTF-8"?>

<!-- generated on 2025-01-13 10:02:28 by Eclipse SUMO netedit Version 1.20.0
<configuration xmlns:xsi="http://www.w3.org/2001/XMLSchema-instance" xsi:noNamespaceSchemaLocation="http://sumo.dlr.de/xsd/neteditConfiguration.xsd">

    <input>
        <sumo-net-file value="/Users/giuseppe/Desktop/GANSumo/Simulation_files/net.net.xml"/>
    </input>

    <output>
        <output-file value="/Users/giuseppe/Desktop/GANSumo/Simulation_files/net.net.xml"/>
    </output>

    <processing>
        <geometry.min-radius.fix.railways value="false"/>
        <geometry.max-grade.fix value="false"/>
        <offset.disable-normalization value="true"/>
        <lefthand value="0"/>
    </processing>

    <junctions>
        <no-internal-links value="false"/>
        <no-turnarounds value="true"/>
        <junctions.corner-detail value="5"/>
        <junctions.limit-turn-speed value="5.50"/>
        <rectangular-lane-cut value="0"/>
    </junctions>

    <pedestrian>
        <walkingareas value="0"/>
    </pedestrian>

</configuration>
-->

<net version="1.20" junctionCornerDetail="5" limitTurnSpeed="5.50" xmlns:xsi="http://www.w3.org/2001/XMLSchema-instance" xsi:noNamespaceSchemaLocation="http://sumo.dlr.de/xsd/net_file.xsd">

    <location netOffset="0.00,0.00" convBoundary="-1500.01,-1000.00,1500.00,1000.00" origBoundary="-10000000000.00,-10000000000.00,10000000000.00,10000000000.00" projParameter="!"/>

    <edge id=":J0_0" function="internal">
        <lane id=":J0_0_0" index="0" disallow="pedestrian" speed="6.51" length="9.03" shape="-501.60,7.20 -501.95,4.75 -503.00,3.00 -504.75,1.95 -507.20,1.60"/>
    </edge>
    <edge id=":J0_1" function="internal">
        <lane id=":J0_1_0" index="0" disallow="pedestrian" speed="13.89" length="14.40" shape="-501.60,7.20 -501.60,-7.20"/>
    </edge>
    <edge id=":J0_2" function="internal">
        <lane id=":J0_2_0" index="0" disallow="pedestrian" speed="8.00" length="14.19" shape="-501.60,7.20 -501.05,3.35 -499.40,0.60 -496.65,-1.05 -492.80,-1.60"/>
    </edge>
    <edge id=":J0_3" function="internal">
        <lane id=":J0_3_0" index="0" disallow="pedestrian" speed="6.51" length="4.75" shape="-492.80,1.60 -495.25,1.95 -497.00,3.00 -497.12,3.20"/>
    </edge>
    <edge id=":J0_4" function="internal">
        <lane id=":J0_4_0" index="0" disallow="pedestrian" speed="13.85" length="14.40" shape="-492.80,1.60 -507.20,1.60">
            <neigh lane=":J0_10_0"/>
        </lane>
    </edge>
    <edge id=":J0_5" function="internal">
        <lane id=":J0_5_0" index="0" disallow="pedestrian" speed="8.00" length="4.07" shape="-492.80,1.60 -496.65,1.05 -496.80,0.96"/>
    </edge>
    <edge id=":J0_12" function="internal">
        <lane id=":J0_12_0" index="0" disallow="pedestrian" speed="6.51" length="4.28" shape="-497.12,3.20 -498.05,4.75 -498.40,7.20"/>
    </edge>
    <edge id=":J0_13" function="internal">
        <lane id=":J0_13_0" index="0" disallow="pedestrian" speed="8.00" length="10.13" shape="-496.80,0.96 -499.40,-0.60 -501.05,-3.35 -501.60,-7.20"/>
    </edge>
    <edge id=":J0_6" function="internal">
        <lane id=":J0_6_0" index="0" disallow="pedestrian" speed="6.51" length="9.03" shape="-498.40,-7.20 -498.05,-4.75 -497.00,-3.00 -495.25,-1.95 -492.80,-1.60"/>
    </edge>
    <edge id=":J0_7" function="internal">
        <lane id=":J0_7_0" index="0" disallow="pedestrian" speed="13.89" length="14.40" shape="-498.40,-7.20 -498.40,7.20"/>
    </edge>
    <edge id=":J0_8" function="internal">
        <lane id=":J0_8_0" index="0" disallow="pedestrian" speed="8.00" length="14.19" shape="-498.40,-7.20 -498.95,-3.35 -500.60,-0.60 -503.35,1.05 -507.20,1.60"/>
    </edge>
    <edge id=":J0_9" function="internal">
        <lane id=":J0_9_0" index="0" disallow="pedestrian" speed="6.51" length="4.75" shape="-507.20,-1.60 -504.75,-1.95 -503.00,-3.00 -502.88,-3.20"/>
    </edge>
    <edge id=":J0_10" function="internal">
        <lane id=":J0_10_0" index="0" disallow="pedestrian" speed="13.85" length="14.40" shape="-507.20,-1.60 -492.80,-1.60">
            <neigh lane=":J0_4_0"/>
        </lane>
    </edge>
    <edge id=":J0_11" function="internal">
        <lane id=":J0_11_0" index="0" disallow="pedestrian" speed="8.00" length="4.07" shape="-507.20,-1.60 -503.35,-1.05 -503.20,-0.96"/>
    </edge>
    <edge id=":J0_14" function="internal">
        <lane id=":J0_14_0" index="0" disallow="pedestrian" speed="6.51" length="4.28" shape="-502.88,-3.20 -501.95,-4.75 -501.60,-7.20"/>
    </edge>
    <edge id=":J0_15" function="internal">
        <lane id=":J0_15_0" index="0" disallow="pedestrian" speed="8.00" length="10.13" shape="-503.20,-0.96 -500.60,0.60 -498.95,3.35 -498.40,7.20"/>
    </edge>
    <edge id=":J0_c0" function="crossing" crossingEdges="E1 -E1">
        <lane id=":J0_c0_0" index="0" allow="pedestrian" speed="2.78" length="6.40" width="4.00" shape="-496.80,5.20 -503.20,5.20" outlineShape="-496.80,7.20 -503.20,7.20 -507.20,3.20 -507.20,5.20 -505.20,7.20 -503.20,7.20 -507.20,3.20 -492.80,3.20 -494.02,3.31 -495.02,3.64 -495.80,4.20 -496.36,4.98 -496.69,5.98 -496.80,7.20"/>
    </edge>
    <edge id=":J0_c1" function="crossing" crossingEdges="E0 -E0">
        <lane id=":J0_c1_0" index="0" allow="pedestrian" speed="2.78" length="6.40" width="4.00" shape="-494.80,-3.20 -494.80,3.20" outlineShape="-492.80,-3.20 -492.80,3.20 -494.02,3.31 -495.02,3.64 -495.80,4.20 -496.36,4.98 -496.47,5.31 -496.80,3.20 -496.80,-3.20 -496.47,-5.31 -496.36,-4.98 -495.80,-4.20 -495.02,-3.64 -494.02,-3.31 -492.80,-3.20"/>
    </edge>
    <edge id=":J0_c2" function="crossing" crossingEdges="E2 -E2">
        <lane id=":J0_c2_0" index="0" allow="pedestrian" speed="2.78" length="6.40" width="4.00" shape="-503.20,-5.20 -496.80,-5.20" outlineShape="-503.20,-7.20 -496.80,-7.20 -492.80,-3.20 -492.80,-5.20 -494.80,-7.20 -496.80,-7.20 -492.80,-3.20 -507.20,-3.20 -505.98,-3.31 -504.98,-3.64 -504.20,-4.20 -503.64,-4.98 -503.31,-5.98 -503.20,-7.20"/>
    </edge>
    <edge id=":J0_c3" function="crossing" crossingEdges="E3 -E3">
        <lane id=":J0_c3_0" index="0" allow="pedestrian" speed="2.78" length="6.40" width="4.00" shape="-505.20,3.20 -505.20,-3.20" outlineShape="-507.20,3.20 -507.20,-3.20 -505.98,-3.31 -504.98,-3.64 -504.20,-4.20 -503.64,-4.98 -503.53,-5.31 -503.20,-3.20 -503.20,3.20 -503.53,5.31 -503.64,4.98 -504.20,4.20 -504.98,3.64 -505.98,3.31 -507.20,3.20"/>
    </edge>
    <edge id=":J0_w0" function="walkingarea">
        <lane id=":J0_w0_0" index="0" allow="pedestrian" speed="2.78" length="3.30" width="4.00" shape="-507.20,3.20 -507.20,5.20 -505.20,7.20 -503.20,7.20 -503.31,5.98 -503.64,4.98 -504.20,4.20 -504.98,3.64 -505.98,3.31"/>
    </edge>
    <edge id=":J0_w1" function="walkingarea">
        <lane id=":J0_w1_0" index="0" allow="pedestrian" speed="2.78" length="3.30" width="4.00" shape="-496.80,7.20 -494.80,7.20 -492.80,5.20 -492.80,3.20 -494.02,3.31 -495.02,3.64 -495.80,4.20 -496.36,4.98 -496.69,5.98"/>
    </edge>
    <edge id=":J0_w2" function="walkingarea">
        <lane id=":J0_w2_0" index="0" allow="pedestrian" speed="2.78" length="3.30" width="4.00" shape="-492.80,-3.20 -492.80,-5.20 -494.80,-7.20 -496.80,-7.20 -496.69,-5.98 -496.36,-4.98 -495.80,-4.20 -495.02,-3.64 -494.02,-3.31"/>
    </edge>
    <edge id=":J0_w3" function="walkingarea">
        <lane id=":J0_w3_0" index="0" allow="pedestrian" speed="2.78" length="3.30" width="4.00" shape="-503.20,-7.20 -505.20,-7.20 -507.20,-5.20 -507.20,-3.20 -505.98,-3.31 -504.98,-3.64 -504.20,-4.20 -503.64,-4.98 -503.31,-5.98"/>
    </edge>
    <edge id=":J1_0" function="internal">
        <lane id=":J1_0_0" index="0" disallow="pedestrian" speed="6.51" length="4.75" shape="498.40,7.20 498.05,4.75 497.00,3.00 496.80,2.88"/>
    </edge>
    <edge id=":J1_1" function="internal">
        <lane id=":J1_1_0" index="0" disallow="pedestrian" speed="13.89" length="14.40" shape="498.40,7.20 498.40,-7.20"/>
    </edge>
    <edge id=":J1_2" function="internal">
        <lane id=":J1_2_0" index="0" disallow="pedestrian" speed="8.00" length="4.07" shape="498.40,7.20 498.95,3.35 499.04,3.20"/>
    </edge>
    <edge id=":J1_12" function="internal">
        <lane id=":J1_12_0" index="0" disallow="pedestrian" speed="6.51" length="4.28" shape="496.80,2.88 495.25,1.95 492.80,1.60"/>
    </edge>
    <edge id=":J1_13" function="internal">
        <lane id=":J1_13_0" index="0" disallow="pedestrian" speed="8.00" length="10.13" shape="499.04,3.20 500.60,0.60 503.35,-1.05 507.20,-1.60"/>
    </edge>
    <edge id=":J1_3" function="internal">
        <lane id=":J1_3_0" index="0" disallow="pedestrian" speed="6.51" length="9.03" shape="507.20,1.60 504.75,1.95 503.00,3.00 501.95,4.75 501.60,7.20"/>
    </edge>
    <edge id=":J1_4" function="internal">
        <lane id=":J1_4_0" index="0" disallow="pedestrian" speed="13.85" length="14.40" shape="507.20,1.60 492.80,1.60">
            <neigh lane=":J1_10_0"/>
        </lane>
    </edge>
    <edge id=":J1_5" function="internal">
        <lane id=":J1_5_0" index="0" disallow="pedestrian" speed="8.00" length="14.19" shape="507.20,1.60 503.35,1.05 500.60,-0.60 498.95,-3.35 498.40,-7.20"/>
    </edge>
    <edge id=":J1_6" function="internal">
        <lane id=":J1_6_0" index="0" disallow="pedestrian" speed="6.51" length="4.75" shape="501.60,-7.20 501.95,-4.75 503.00,-3.00 503.20,-2.88"/>
    </edge>
    <edge id=":J1_7" function="internal">
        <lane id=":J1_7_0" index="0" disallow="pedestrian" speed="13.89" length="14.40" shape="501.60,-7.20 501.60,7.20"/>
    </edge>
    <edge id=":J1_8" function="internal">
        <lane id=":J1_8_0" index="0" disallow="pedestrian" speed="8.00" length="4.07" shape="501.60,-7.20 501.05,-3.35 500.96,-3.20"/>
    </edge>
    <edge id=":J1_14" function="internal">
        <lane id=":J1_14_0" index="0" disallow="pedestrian" speed="6.51" length="4.28" shape="503.20,-2.88 504.75,-1.95 507.20,-1.60"/>
    </edge>
    <edge id=":J1_15" function="internal">
        <lane id=":J1_15_0" index="0" disallow="pedestrian" speed="8.00" length="10.13" shape="500.96,-3.20 499.40,-0.60 496.65,1.05 492.80,1.60"/>
    </edge>
    <edge id=":J1_9" function="internal">
        <lane id=":J1_9_0" index="0" disallow="pedestrian" speed="6.51" length="9.03" shape="492.80,-1.60 495.25,-1.95 497.00,-3.00 498.05,-4.75 498.40,-7.20"/>
    </edge>
    <edge id=":J1_10" function="internal">
        <lane id=":J1_10_0" index="0" disallow="pedestrian" speed="13.85" length="14.40" shape="492.80,-1.60 507.20,-1.60">
            <neigh lane=":J1_4_0"/>
        </lane>
    </edge>
    <edge id=":J1_11" function="internal">
        <lane id=":J1_11_0" index="0" disallow="pedestrian" speed="8.00" length="14.19" shape="492.80,-1.60 496.65,-1.05 499.40,0.60 501.05,3.35 501.60,7.20"/>
    </edge>
    <edge id=":J1_c0" function="crossing" crossingEdges="E6 -E6">
        <lane id=":J1_c0_0" index="0" allow="pedestrian" speed="2.78" length="6.40" width="4.00" shape="503.20,5.20 496.80,5.20" outlineShape="503.20,7.20 496.80,7.20 492.80,3.20 492.80,5.20 494.80,7.20 496.80,7.20 492.80,3.20 507.20,3.20 505.98,3.31 504.98,3.64 504.20,4.20 503.64,4.98 503.31,5.98 503.20,7.20"/>
    </edge>
    <edge id=":J1_c1" function="crossing" crossingEdges="E5 -E5">
        <lane id=":J1_c1_0" index="0" allow="pedestrian" speed="2.78" length="6.40" width="4.00" shape="505.20,-3.20 505.20,3.20" outlineShape="507.20,-3.20 507.20,3.20 505.98,3.31 504.98,3.64 504.20,4.20 503.64,4.98 503.53,5.31 503.20,3.20 503.20,-3.20 503.53,-5.31 503.64,-4.98 504.20,-4.20 504.98,-3.64 505.98,-3.31 507.20,-3.20"/>
    </edge>
    <edge id=":J1_c2" function="crossing" crossingEdges="E4 -E4">
        <lane id=":J1_c2_0" index="0" allow="pedestrian" speed="2.78" length="6.40" width="4.00" shape="496.80,-5.20 503.20,-5.20" outlineShape="496.80,-7.20 503.20,-7.20 507.20,-3.20 507.20,-5.20 505.20,-7.20 503.20,-7.20 507.20,-3.20 492.80,-3.20 494.02,-3.31 495.02,-3.64 495.80,-4.20 496.36,-4.98 496.69,-5.98 496.80,-7.20"/>
    </edge>
    <edge id=":J1_c3" function="crossing" crossingEdges="-E0 E0">
        <lane id=":J1_c3_0" index="0" allow="pedestrian" speed="2.78" length="6.40" width="4.00" shape="494.80,3.20 494.80,-3.20" outlineShape="492.80,3.20 492.80,-3.20 494.02,-3.31 495.02,-3.64 495.80,-4.20 496.36,-4.98 496.47,-5.31 496.80,-3.20 496.80,3.20 496.47,5.31 496.36,4.98 495.80,4.20 495.02,3.64 494.02,3.31 492.80,3.20"/>
    </edge>
    <edge id=":J1_w0" function="walkingarea">
        <lane id=":J1_w0_0" index="0" allow="pedestrian" speed="2.78" length="3.30" width="4.00" shape="492.80,3.20 492.80,5.20 494.80,7.20 496.80,7.20 496.69,5.98 496.36,4.98 495.80,4.20 495.02,3.64 494.02,3.31"/>
    </edge>
    <edge id=":J1_w1" function="walkingarea">
        <lane id=":J1_w1_0" index="0" allow="pedestrian" speed="2.78" length="3.30" width="4.00" shape="503.20,7.20 505.20,7.20 507.20,5.20 507.20,3.20 505.98,3.31 504.98,3.64 504.20,4.20 503.64,4.98 503.31,5.98"/>
    </edge>
    <edge id=":J1_w2" function="walkingarea">
        <lane id=":J1_w2_0" index="0" allow="pedestrian" speed="2.78" length="3.30" width="4.00" shape="507.20,-3.20 507.20,-5.20 505.20,-7.20 503.20,-7.20 503.31,-5.98 503.64,-4.98 504.20,-4.20 504.98,-3.64 505.98,-3.31"/>
    </edge>
    <edge id=":J1_w3" function="walkingarea">
        <lane id=":J1_w3_0" index="0" allow="pedestrian" speed="2.78" length="3.30" width="4.00" shape="496.80,-7.20 494.80,-7.20 492.80,-5.20 492.80,-3.20 494.02,-3.31 495.02,-3.64 495.80,-4.20 496.36,-4.98 496.69,-5.98"/>
    </edge>
    <edge id=":J2_w0" function="walkingarea">
        <lane id=":J2_w0_0" index="0" allow="pedestrian" speed="2.78" length="8.40" width="2.00" shape="-503.20,500.00 -505.20,500.00 -494.80,500.00 -496.80,500.00"/>
    </edge>
    <edge id=":J3_w0" function="walkingarea">
        <lane id=":J3_w0_0" index="0" allow="pedestrian" speed="2.78" length="8.40" width="2.00" shape="-496.80,-500.00 -494.80,-500.00 -505.20,-500.00 -503.20,-500.00"/>
    </edge>
    <edge id=":J4_w0" function="walkingarea">
        <lane id=":J4_w0_0" index="0" allow="pedestrian" speed="2.78" length="8.40" width="2.00" shape="-1500.01,-3.20 -1500.01,-5.20 -1500.01,5.20 -1500.01,3.20"/>
    </edge>
    <edge id=":J5_w0" function="walkingarea">
        <lane id=":J5_w0_0" index="0" allow="pedestrian" speed="2.78" length="8.40" width="2.00" shape="503.20,-1000.00 505.20,-1000.00 494.80,-1000.00 496.80,-1000.00"/>
    </edge>
    <edge id=":J6_w0" function="walkingarea">
        <lane id=":J6_w0_0" index="0" allow="pedestrian" speed="2.78" length="8.40" width="2.00" shape="1500.00,3.20 1500.00,5.20 1500.00,-5.20 1500.00,-3.20"/>
    </edge>
    <edge id=":J7_w0" function="walkingarea">
        <lane id=":J7_w0_0" index="0" allow="pedestrian" speed="2.78" length="8.40" width="2.00" shape="496.80,1000.00 494.80,1000.00 505.20,1000.00 503.20,1000.00"/>
    </edge>

    <edge id="-E0" from="J1" to="J0" priority="10" spreadType="center" shape="500.06,2.60 -500.00,2.60">
        <lane id="-E0_0" index="0" allow="pedestrian" speed="13.80" length="985.60" width="2.00" shape="492.80,4.20 -492.80,4.20"/>
        <lane id="-E0_1" index="1" disallow="pedestrian" speed="13.80" length="985.60" shape="492.80,1.60 -492.80,1.60">
            <neigh lane="E0_1"/>
        </lane>
    </edge>
    <edge id="-E1" from="J2" to="J0" priority="-1">
        <lane id="-E1_0" index="0" allow="pedestrian" speed="13.89" length="492.80" width="2.00" shape="-504.20,500.00 -504.20,7.20"/>
        <lane id="-E1_1" index="1" disallow="pedestrian" speed="13.89" length="492.80" shape="-501.60,500.00 -501.60,7.20"/>
    </edge>
    <edge id="-E2" from="J3" to="J0" priority="-1">
        <lane id="-E2_0" index="0" allow="pedestrian" speed="13.89" length="492.80" width="2.00" shape="-495.80,-500.00 -495.80,-7.20"/>
        <lane id="-E2_1" index="1" disallow="pedestrian" speed="13.89" length="492.80" shape="-498.40,-500.00 -498.40,-7.20"/>
    </edge>
    <edge id="-E3" from="J4" to="J0" priority="10" spreadType="center" shape="-1500.01,-2.60 -500.00,-2.60">
        <lane id="-E3_0" index="0" allow="pedestrian" speed="13.89" length="992.81" width="2.00" shape="-1500.01,-4.20 -507.20,-4.20"/>
        <lane id="-E3_1" index="1" disallow="pedestrian" speed="13.89" length="992.81" shape="-1500.01,-1.60 -507.20,-1.60">
            <neigh lane="E3_1"/>
        </lane>
    </edge>
    <edge id="-E4" from="J5" to="J1" priority="10">
        <lane id="-E4_0" index="0" allow="pedestrian" speed="13.89" length="992.80" width="2.00" shape="504.20,-1000.00 504.20,-7.20"/>
        <lane id="-E4_1" index="1" disallow="pedestrian" speed="13.89" length="992.80" shape="501.60,-1000.00 501.60,-7.20"/>
    </edge>
    <edge id="-E5" from="J6" to="J1" priority="10">
        <lane id="-E5_0" index="0" allow="pedestrian" speed="13.89" length="992.80" width="2.00" shape="1500.00,4.20 507.20,4.20"/>
        <lane id="-E5_1" index="1" disallow="pedestrian" speed="13.89" length="992.80" shape="1500.00,1.60 507.20,1.60">
            <neigh lane="E5_1"/>
        </lane>
    </edge>
    <edge id="-E6" from="J7" to="J1" priority="10">
        <lane id="-E6_0" index="0" allow="pedestrian" speed="13.89" length="992.80" width="2.00" shape="495.80,1000.00 495.80,7.20"/>
        <lane id="-E6_1" index="1" disallow="pedestrian" speed="13.89" length="992.80" shape="498.40,1000.00 498.40,7.20"/>
    </edge>
    <edge id="E0" from="J0" to="J1" priority="10" spreadType="center" shape="-500.00,-2.60 500.06,-2.60">
        <lane id="E0_0" index="0" allow="pedestrian" speed="13.80" length="985.60" width="2.00" shape="-492.80,-4.20 492.80,-4.20"/>
        <lane id="E0_1" index="1" disallow="pedestrian" speed="13.80" length="985.60" shape="-492.80,-1.60 492.80,-1.60">
            <neigh lane="-E0_1"/>
        </lane>
    </edge>
    <edge id="E1" from="J0" to="J2" priority="-1">
        <lane id="E1_0" index="0" allow="pedestrian" speed="13.89" length="492.80" width="2.00" shape="-495.80,7.20 -495.80,500.00"/>
        <lane id="E1_1" index="1" disallow="pedestrian" speed="13.89" length="492.80" shape="-498.40,7.20 -498.40,500.00"/>
    </edge>
    <edge id="E2" from="J0" to="J3" priority="-1">
        <lane id="E2_0" index="0" allow="pedestrian" speed="13.89" length="492.80" width="2.00" shape="-504.20,-7.20 -504.20,-500.00"/>
        <lane id="E2_1" index="1" disallow="pedestrian" speed="13.89" length="492.80" shape="-501.60,-7.20 -501.60,-500.00"/>
    </edge>
    <edge id="E3" from="J0" to="J4" priority="10" spreadType="center" shape="-500.00,2.60 -1500.01,2.60">
        <lane id="E3_0" index="0" allow="pedestrian" speed="13.89" length="992.81" width="2.00" shape="-507.20,4.20 -1500.01,4.20"/>
        <lane id="E3_1" index="1" disallow="pedestrian" speed="13.89" length="992.81" shape="-507.20,1.60 -1500.01,1.60">
            <neigh lane="-E3_1"/>
        </lane>
    </edge>
    <edge id="E4" from="J1" to="J5" priority="10">
        <lane id="E4_0" index="0" allow="pedestrian" speed="13.89" length="992.80" width="2.00" shape="495.80,-7.20 495.80,-1000.00"/>
        <lane id="E4_1" index="1" disallow="pedestrian" speed="13.89" length="992.80" shape="498.40,-7.20 498.40,-1000.00"/>
    </edge>
    <edge id="E5" from="J1" to="J6" priority="10">
        <lane id="E5_0" index="0" allow="pedestrian" speed="13.89" length="992.80" width="2.00" shape="507.20,-4.20 1500.00,-4.20"/>
        <lane id="E5_1" index="1" disallow="pedestrian" speed="13.89" length="992.80" shape="507.20,-1.60 1500.00,-1.60">
            <neigh lane="-E5_1"/>
        </lane>
    </edge>
    <edge id="E6" from="J1" to="J7" priority="10">
        <lane id="E6_0" index="0" allow="pedestrian" speed="13.89" length="992.80" width="2.00" shape="504.20,7.20 504.20,1000.00"/>
        <lane id="E6_1" index="1" disallow="pedestrian" speed="13.89" length="992.80" shape="501.60,7.20 501.60,1000.00"/>
    </edge>

    <junction id="J0" type="priority" x="-500.00" y="0.00" incLanes="-E1_0 -E1_1 -E0_0 -E0_1 -E2_0 -E2_1 -E3_0 -E3_1 :J0_w1_0 :J0_w2_0 :J0_w3_0 :J0_w0_0" intLanes=":J0_0_0 :J0_1_0 :J0_2_0 :J0_12_0 :J0_4_0 :J0_13_0 :J0_6_0 :J0_7_0 :J0_8_0 :J0_14_0 :J0_10_0 :J0_15_0 :J0_c0_0 :J0_c1_0 :J0_c2_0 :J0_c3_0" shape="-505.20,7.20 -494.80,7.20 -494.58,6.09 -494.30,5.70 -493.91,5.42 -493.41,5.26 -492.80,5.20 -492.80,-5.20 -493.91,-5.42 -494.30,-5.70 -494.58,-6.09 -494.74,-6.59 -494.80,-7.20 -505.20,-7.20 -505.42,-6.09 -505.70,-5.70 -506.09,-5.42 -506.59,-5.26 -507.20,-5.20 -507.20,5.20 -506.09,5.42 -505.70,5.70 -505.42,6.09 -505.26,6.59">
        <request index="0"  response="1000000000010000" foes="1001000100010000" cont="0"/>
        <request index="1"  response="0000111000110000" foes="0101111100110000" cont="0"/>
        <request index="2"  response="0010110111110000" foes="0011110111110000" cont="0"/>
        <request index="3"  response="0001000000000000" foes="0011100010000000" cont="1"/>
        <request index="4"  response="0000000000000000" foes="1010100110000111" cont="0"/>
        <request index="5"  response="0100111000000000" foes="0110111110000110" cont="1"/>
        <request index="6"  response="0010010000000000" foes="0110010000000100" cont="0"/>
        <request index="7"  response="0000110000111000" foes="0101110000111100" cont="0"/>
        <request index="8"  response="1000110000110011" foes="1100110000110111" cont="0"/>
        <request index="9"  response="0100000000000000" foes="1100000000100010" cont="1"/>
        <request index="10" response="0000000000000000" foes="1010000111100110" cont="0"/>
        <request index="11" response="0001000000011000" foes="1001000110111110" cont="1"/>
        <request index="12" response="0000000010000111" foes="0000100010001111" cont="0"/>
        <request index="13" response="0000010000111000" foes="0000010001111100" cont="0"/>
        <request index="14" response="0000000111000010" foes="0000001111100010" cont="0"/>
        <request index="15" response="0000111000010000" foes="0000111100010001" cont="0"/>
    </junction>
    <junction id="J1" type="priority" x="500.00" y="0.00" incLanes="-E6_0 -E6_1 -E5_0 -E5_1 -E4_0 -E4_1 E0_0 E0_1 :J1_w1_0 :J1_w2_0 :J1_w3_0 :J1_w0_0" intLanes=":J1_12_0 :J1_1_0 :J1_13_0 :J1_3_0 :J1_4_0 :J1_5_0 :J1_14_0 :J1_7_0 :J1_15_0 :J1_9_0 :J1_10_0 :J1_11_0 :J1_c0_0 :J1_c1_0 :J1_c2_0 :J1_c3_0" shape="494.80,7.20 505.20,7.20 505.42,6.09 505.70,5.70 506.09,5.42 506.59,5.26 507.20,5.20 507.20,-5.20 506.09,-5.42 505.70,-5.70 505.42,-6.09 505.26,-6.59 505.20,-7.20 494.80,-7.20 494.58,-6.09 494.30,-5.70 493.91,-5.42 493.41,-5.26 492.80,-5.20 492.80,5.20 493.91,5.42 494.30,5.70 494.58,6.09 494.74,6.59">
        <request index="0"  response="1001000000000000" foes="1001000100010000" cont="1"/>
        <request index="1"  response="0101000000000000" foes="0101111100110000" cont="0"/>
        <request index="2"  response="0011000011000000" foes="0011110111110000" cont="1"/>
        <request index="3"  response="0011000010000000" foes="0011100010000000" cont="0"/>
        <request index="4"  response="1010000110000111" foes="1010100110000111" cont="0"/>
        <request index="5"  response="0110111110000110" foes="0110111110000110" cont="0"/>
        <request index="6"  response="0110000000000000" foes="0110010000000100" cont="1"/>
        <request index="7"  response="0101000000000000" foes="0101110000111100" cont="0"/>
        <request index="8"  response="1100000000000111" foes="1100110000110111" cont="1"/>
        <request index="9"  response="1100000000000010" foes="1100000000100010" cont="0"/>
        <request index="10" response="1010000111000110" foes="1010000111100110" cont="0"/>
        <request index="11" response="1001000110011110" foes="1001000110111110" cont="0"/>
        <request index="12" response="0000000000000000" foes="0000100010001111" cont="0"/>
        <request index="13" response="0000000000000000" foes="0000010001111100" cont="0"/>
        <request index="14" response="0000000000000000" foes="0000001111100010" cont="0"/>
        <request index="15" response="0000000000000000" foes="0000111100010001" cont="0"/>
    </junction>
    <junction id="J2" type="dead_end" x="-500.00" y="500.00" incLanes="E1_0 E1_1" intLanes="" shape="-500.00,500.00 -494.80,500.00 -500.00,500.00"/>
    <junction id="J3" type="dead_end" x="-500.00" y="-500.00" incLanes="E2_0 E2_1" intLanes="" shape="-500.00,-500.00 -505.20,-500.00 -500.00,-500.00"/>
    <junction id="J4" type="dead_end" x="-1500.00" y="0.00" incLanes="E3_0 E3_1" intLanes="" shape="-1500.00,0.00 -1500.00,5.20 -1500.00,0.00"/>
    <junction id="J5" type="dead_end" x="500.00" y="-1000.00" incLanes="E4_0 E4_1" intLanes="" shape="500.00,-1000.00 494.80,-1000.00 500.00,-1000.00"/>
    <junction id="J6" type="dead_end" x="1500.00" y="0.00" incLanes="E5_0 E5_1" intLanes="" shape="1500.00,0.00 1500.00,-5.20 1500.00,0.00"/>
    <junction id="J7" type="dead_end" x="500.00" y="1000.00" incLanes="E6_0 E6_1" intLanes="" shape="500.00,1000.00 505.20,1000.00 500.00,1000.00"/>

    <junction id=":J0_12_0" type="internal" x="-497.12" y="3.20" incLanes=":J0_3_0" intLanes=":J0_7_0 :J0_11_0 :J0_c0_0 :J0_c1_0"/>
    <junction id=":J0_13_0" type="internal" x="-496.80" y="0.96" incLanes=":J0_5_0 -E3_1" intLanes=":J0_1_0 :J0_2_0 :J0_7_0 :J0_8_0 :J0_9_0 :J0_10_0 :J0_c1_0 :J0_c2_0"/>
    <junction id=":J0_14_0" type="internal" x="-502.88" y="-3.20" incLanes=":J0_9_0" intLanes=":J0_1_0 :J0_5_0 :J0_c2_0 :J0_c3_0"/>
    <junction id=":J0_15_0" type="internal" x="-503.20" y="-0.96" incLanes=":J0_11_0 -E0_1" intLanes=":J0_1_0 :J0_2_0 :J0_3_0 :J0_4_0 :J0_7_0 :J0_8_0 :J0_c0_0 :J0_c3_0"/>
    <junction id=":J1_12_0" type="internal" x="496.80" y="2.88" incLanes=":J1_0_0" intLanes=":J1_4_0 :J1_8_0 :J1_c0_0 :J1_c3_0"/>
    <junction id=":J1_13_0" type="internal" x="499.04" y="3.20" incLanes=":J1_2_0 -E4_1" intLanes=":J1_4_0 :J1_5_0 :J1_6_0 :J1_7_0 :J1_10_0 :J1_11_0 :J1_c0_0 :J1_c1_0"/>
    <junction id=":J1_14_0" type="internal" x="503.20" y="-2.88" incLanes=":J1_6_0" intLanes=":J1_2_0 :J1_10_0 :J1_c1_0 :J1_c2_0"/>
    <junction id=":J1_15_0" type="internal" x="500.96" y="-3.20" incLanes=":J1_8_0 -E6_1" intLanes=":J1_0_0 :J1_1_0 :J1_4_0 :J1_5_0 :J1_10_0 :J1_11_0 :J1_c2_0 :J1_c3_0"/>

    <connection from="-E0" to="E1" fromLane="1" toLane="1" via=":J0_3_0" dir="r" state="m"/>
    <connection from="-E0" to="E3" fromLane="1" toLane="1" via=":J0_4_0" dir="s" state="M"/>
    <connection from="-E0" to="E2" fromLane="1" toLane="1" via=":J0_5_0" dir="l" state="m"/>
    <connection from="-E1" to="E3" fromLane="1" toLane="1" via=":J0_0_0" dir="r" state="m"/>
    <connection from="-E1" to="E2" fromLane="1" toLane="1" via=":J0_1_0" dir="s" state="m"/>
    <connection from="-E1" to="E0" fromLane="1" toLane="1" via=":J0_2_0" dir="l" state="m"/>
    <connection from="-E2" to="E0" fromLane="1" toLane="1" via=":J0_6_0" dir="r" state="m"/>
    <connection from="-E2" to="E1" fromLane="1" toLane="1" via=":J0_7_0" dir="s" state="m"/>
    <connection from="-E2" to="E3" fromLane="1" toLane="1" via=":J0_8_0" dir="l" state="m"/>
    <connection from="-E3" to="E2" fromLane="1" toLane="1" via=":J0_9_0" dir="r" state="m"/>
    <connection from="-E3" to="E0" fromLane="1" toLane="1" via=":J0_10_0" dir="s" state="M"/>
    <connection from="-E3" to="E1" fromLane="1" toLane="1" via=":J0_11_0" dir="l" state="m"/>
    <connection from="-E4" to="E5" fromLane="1" toLane="1" via=":J1_6_0" dir="r" state="m"/>
    <connection from="-E4" to="E6" fromLane="1" toLane="1" via=":J1_7_0" dir="s" state="m"/>
    <connection from="-E4" to="-E0" fromLane="1" toLane="1" via=":J1_8_0" dir="l" state="m"/>
    <connection from="-E5" to="E6" fromLane="1" toLane="1" via=":J1_3_0" dir="r" state="m"/>
    <connection from="-E5" to="-E0" fromLane="1" toLane="1" via=":J1_4_0" dir="s" state="m"/>
    <connection from="-E5" to="E4" fromLane="1" toLane="1" via=":J1_5_0" dir="l" state="m"/>
    <connection from="-E6" to="-E0" fromLane="1" toLane="1" via=":J1_0_0" dir="r" state="m"/>
    <connection from="-E6" to="E4" fromLane="1" toLane="1" via=":J1_1_0" dir="s" state="m"/>
    <connection from="-E6" to="E5" fromLane="1" toLane="1" via=":J1_2_0" dir="l" state="m"/>
    <connection from="E0" to="E4" fromLane="1" toLane="1" via=":J1_9_0" dir="r" state="m"/>
    <connection from="E0" to="E5" fromLane="1" toLane="1" via=":J1_10_0" dir="s" state="m"/>
    <connection from="E0" to="E6" fromLane="1" toLane="1" via=":J1_11_0" dir="l" state="m"/>

    <connection from=":J0_0" to="E3" fromLane="0" toLane="1" dir="r" state="M"/>
    <connection from=":J0_1" to="E2" fromLane="0" toLane="1" dir="s" state="M"/>
    <connection from=":J0_2" to="E0" fromLane="0" toLane="1" dir="l" state="M"/>
    <connection from=":J0_3" to="E1" fromLane="0" toLane="1" via=":J0_12_0" dir="r" state="m"/>
    <connection from=":J0_12" to="E1" fromLane="0" toLane="1" dir="r" state="m"/>
    <connection from=":J0_4" to="E3" fromLane="0" toLane="1" dir="s" state="M"/>
    <connection from=":J0_5" to="E2" fromLane="0" toLane="1" via=":J0_13_0" dir="l" state="m"/>
    <connection from=":J0_13" to="E2" fromLane="0" toLane="1" dir="l" state="m"/>
    <connection from=":J0_6" to="E0" fromLane="0" toLane="1" dir="r" state="M"/>
    <connection from=":J0_7" to="E1" fromLane="0" toLane="1" dir="s" state="M"/>
    <connection from=":J0_8" to="E3" fromLane="0" toLane="1" dir="l" state="M"/>
    <connection from=":J0_9" to="E2" fromLane="0" toLane="1" via=":J0_14_0" dir="r" state="m"/>
    <connection from=":J0_14" to="E2" fromLane="0" toLane="1" dir="r" state="m"/>
    <connection from=":J0_10" to="E0" fromLane="0" toLane="1" dir="s" state="M"/>
    <connection from=":J0_11" to="E1" fromLane="0" toLane="1" via=":J0_15_0" dir="l" state="m"/>
    <connection from=":J0_15" to="E1" fromLane="0" toLane="1" dir="l" state="m"/>
    <connection from=":J1_0" to="-E0" fromLane="0" toLane="1" via=":J1_12_0" dir="r" state="m"/>
    <connection from=":J1_12" to="-E0" fromLane="0" toLane="1" dir="r" state="m"/>